
  Chem3D  08110918403D

 47 53  0  0  0  0  0  0  0  0999 V2000
   -4.5175    0.0920    0.8168 C   0  0  0  0  0  0  0  0  0  0  0  0
   -4.5174   -1.2449    0.7918 C   0  0  0  0  0  0  0  0  0  0  0  0
   -3.3596   -1.9135    0.8043 C   0  0  0  0  0  0  0  0  0  0  0  0
   -2.2018   -1.2450    0.8168 C   0  0  0  0  0  0  0  0  0  0  0  0
   -2.2018    0.0920    0.8168 C   0  0  0  0  0  0  0  0  0  0  0  0
   -3.3597    0.7605    0.8168 C   0  0  0  0  0  0  0  0  0  0  0  0
   -1.0199   -1.6987    0.8168 N   0  0  0  0  0  0  0  0  0  0  0  0
   -0.0978   -0.5643    0.9717 C   0  0  2  0  0  0  0  0  0  0  0  0
   -0.8043    0.6285    0.8318 C   0  0  1  0  0  0  0  0  0  0  0  0
   -0.3282   -2.7549    0.7223 C   0  0  0  0  0  0  0  0  0  0  0  0
    1.4150   -2.5683    1.4249 C   0  0  0  0  0  0  0  0  0  0  0  0
    1.8144   -1.9035    0.1141 C   0  0  1  0  0  0  0  0  0  0  0  0
    1.0102   -0.6235   -0.0715 C   0  0  2  0  0  0  0  0  0  0  0  0
    1.9276    0.5809    0.0936 C   0  0  2  0  0  0  0  0  0  0  0  0
    0.2566    0.2397   -1.3837 C   0  0  0  0  0  0  0  0  0  0  0  0
   -0.4852    1.2518   -0.5207 C   0  0  2  0  0  0  0  0  0  0  0  0
    3.1647   -1.5414    0.2193 O   0  0  0  0  0  0  0  0  0  0  0  0
    3.8720   -0.8410   -1.5156 C   0  0  0  0  0  0  0  0  0  0  0  0
    3.2376    0.4262   -1.9979 C   0  0  0  0  0  0  0  0  0  0  0  0
    2.3402    1.0825   -1.2552 C   0  0  0  0  0  0  0  0  0  0  0  0
   -0.7416   -3.7787    0.2322 O   0  0  0  0  0  0  0  0  0  0  0  0
    0.3932    2.3447   -0.2015 N   0  0  0  0  0  0  0  0  0  0  0  0
   -0.6032    1.4863    2.0741 C   0  0  0  0  0  0  0  0  0  0  0  0
    0.3639   -0.6161    1.9831 H   0  0  0  0  0  0  0  0  0  0  0  0
    1.6334   -2.5965   -0.7377 H   0  0  0  0  0  0  0  0  0  0  0  0
    0.5618   -0.6114   -1.0901 H   0  0  0  0  0  0  0  0  0  0  0  0
   -0.4390    3.5099   -0.3336 C   0  0  0  0  0  0  0  0  0  0  0  0
    1.7152    2.3564   -1.7321 C   0  0  0  0  0  0  0  0  0  0  0  0
   -5.4701    0.6417    0.8373 H   0  0  0  0  0  0  0  0  0  0  0  0
   -5.4697   -1.7946    0.7610 H   0  0  0  0  0  0  0  0  0  0  0  0
   -3.3596   -3.0135    0.8043 H   0  0  0  0  0  0  0  0  0  0  0  0
   -3.3597    1.8605    0.8168 H   0  0  0  0  0  0  0  0  0  0  0  0
    1.9349   -3.5304    1.6318 H   0  0  0  0  0  0  0  0  0  0  0  0
    1.5965   -2.0747    2.4058 H   0  0  0  0  0  0  0  0  0  0  0  0
    2.5021    0.9076    0.9892 H   0  0  0  0  0  0  0  0  0  0  0  0
   -0.1722   -0.7874   -1.3921 H   0  0  0  0  0  0  0  0  0  0  0  0
    0.3763    0.3368   -2.4860 H   0  0  0  0  0  0  0  0  0  0  0  0
   -1.3943    1.5729   -1.0766 H   0  0  0  0  0  0  0  0  0  0  0  0
    4.9623   -0.6544   -1.3923 H   0  0  0  0  0  0  0  0  0  0  0  0
    3.6364   -1.6148   -2.2802 H   0  0  0  0  0  0  0  0  0  0  0  0
    3.5156    0.8260   -2.9843 H   0  0  0  0  0  0  0  0  0  0  0  0
    0.3269    1.3193    2.6622 H   0  0  0  0  0  0  0  0  0  0  0  0
   -1.2517    1.5470    2.9766 H   0  0  0  0  0  0  0  0  0  0  0  0
   -0.0149    4.5289   -0.1900 H   0  0  0  0  0  0  0  0  0  0  0  0
   -1.1389    3.9242   -1.0934 H   0  0  0  0  0  0  0  0  0  0  0  0
    2.4079    3.2275   -1.7186 H   0  0  0  0  0  0  0  0  0  0  0  0
    1.3434    2.4279   -2.7787 H   0  0  0  0  0  0  0  0  0  0  0  0
  1  2  1  0      
  1  6  2  0      
  1 29  1  0      
  2  3  2  0      
  2 30  1  0      
  3  4  1  0      
  3 31  1  0      
  4  5  2  0      
  4  7  1  0      
  5  6  1  0      
  5  9  1  0      
  6 32  1  0      
  7  8  1  0      
  7 10  1  0      
  8  9  1  0      
 13  8  1  0      
  8 24  1  0      
 16  9  1  0      
  9 23  1  0      
 10 11  1  0      
 10 21  2  0      
 11 12  1  0      
 11 33  1  0      
 11 34  1  0      
 12 13  1  0      
 12 17  1  0      
 12 25  1  0      
 13 14  1  0      
 13 26  1  0      
 14 15  1  0      
 14 20  1  0      
 14 35  1  0      
 15 16  1  0      
 15 36  1  0      
 15 37  1  0      
 16 22  1  0      
 16 38  1  0      
 17 18  1  0      
 18 19  1  0      
 18 39  1  0      
 18 40  1  0      
 19 20  2  0      
 19 41  1  0      
 28 20  1  0      
 22 27  1  0      
 22 28  1  0      
 23 27  1  0      
 23 42  1  0      
 23 43  1  0      
 27 44  1  0      
 27 45  1  0      
 28 46  1  0      
 28 47  1  0      
M  END
